jz4.pdb
 OpenBabel12222100153D

 22 22  0  0  0  0  0  0  0  0999 V2000
   24.2940  -24.1240   -0.0710 C   0  0  0  0  0  0  0  0  0  0  0  0
   21.5530  -27.2140   -4.1120 C   0  0  0  0  0  0  0  0  0  0  0  0
   22.0680  -26.7470   -5.3310 C   0  0  0  0  0  0  0  0  0  0  0  0
   22.6710  -25.5120   -5.4480 C   0  0  0  0  0  0  0  0  0  0  0  0
   22.7690  -24.7300   -4.2950 C   0  0  0  0  0  0  0  0  0  0  0  0
   21.6930  -26.4590   -2.9540 C   0  0  0  0  0  0  0  0  0  0  0  0
   22.2940  -25.1870   -3.0750 C   0  0  0  0  0  0  0  0  0  0  0  0
   22.4630  -24.4140   -1.8080 C   0  0  0  0  0  0  0  0  0  0  0  0
   23.9250  -24.7040   -1.3940 C   0  0  0  0  0  0  0  0  0  0  0  0
   23.4120  -23.5360   -4.3420 O   0  0  0  0  0  0  0  0  0  0  0  0
   25.3133  -24.3619    0.1509 H   0  0  0  0  0  0  0  0  0  0  0  0
   23.6591  -24.5327    0.6872 H   0  0  0  0  0  0  0  0  0  0  0  0
   24.1744  -23.0611   -0.1016 H   0  0  0  0  0  0  0  0  0  0  0  0
   21.0673  -28.1238   -4.0754 H   0  0  0  0  0  0  0  0  0  0  0  0
   21.9931  -27.3472   -6.1672 H   0  0  0  0  0  0  0  0  0  0  0  0
   23.0361  -25.1783   -6.3537 H   0  0  0  0  0  0  0  0  0  0  0  0
   21.3701  -26.8143   -2.0405 H   0  0  0  0  0  0  0  0  0  0  0  0
   21.7794  -24.7551   -1.0588 H   0  0  0  0  0  0  0  0  0  0  0  0
   22.2659  -23.3694   -1.9301 H   0  0  0  0  0  0  0  0  0  0  0  0
   24.5755  -24.2929   -2.1375 H   0  0  0  0  0  0  0  0  0  0  0  0
   24.0241  -25.7662   -1.3110 H   0  0  0  0  0  0  0  0  0  0  0  0
   23.7394  -23.2120   -5.1580 H   0  0  0  0  0  0  0  0  0  0  0  0
  1 11  1  0  0  0  0
  1 12  1  0  0  0  0
  1 13  1  0  0  0  0
  2  6  1  0  0  0  0
  2 14  1  0  0  0  0
  3  2  2  0  0  0  0
  3 15  1  0  0  0  0
  4  3  1  0  0  0  0
  4  5  2  0  0  0  0
  4 16  1  0  0  0  0
  5  7  1  0  0  0  0
  6 17  1  0  0  0  0
  7  6  2  0  0  0  0
  7  8  1  0  0  0  0
  8  9  1  0  0  0  0
  8 18  1  0  0  0  0
  8 19  1  0  0  0  0
  9  1  1  0  0  0  0
  9 20  1  0  0  0  0
  9 21  1  0  0  0  0
 10  5  1  0  0  0  0
 10 22  1  0  0  0  0
M  END
