
 OpenBabel12172100263D

  9  8  0  0  0  0  0  0  0  0999 V2000
    1.0488   -0.0482   -0.0769 C   0  0  0  0  0  0  0  0  0  0  0  0
    2.5631   -0.0477   -0.0841 C   0  0  0  0  0  0  0  0  0  0  0  0
    3.0448    0.7461   -1.1583 O   0  0  0  0  0  0  0  0  0  0  0  0
    0.6640   -0.6483    0.7523 H   0  0  0  0  0  0  0  0  0  0  0  0
    0.6568   -0.4524   -1.0160 H   0  0  0  0  0  0  0  0  0  0  0  0
    0.6633    0.9725    0.0162 H   0  0  0  0  0  0  0  0  0  0  0  0
    2.9545   -1.0637   -0.1949 H   0  0  0  0  0  0  0  0  0  0  0  0
    2.9501    0.3710    0.8494 H   0  0  0  0  0  0  0  0  0  0  0  0
    2.7052    0.3601   -1.9837 H   0  0  0  0  0  0  0  0  0  0  0  0
  1  2  1  0  0  0  0
  1  4  1  0  0  0  0
  1  5  1  0  0  0  0
  1  6  1  0  0  0  0
  2  3  1  0  0  0  0
  2  7  1  0  0  0  0
  2  8  1  0  0  0  0
  3  9  1  0  0  0  0
M  END
